Circuit: .title KiCad schematic

Direct Newton iteration for .op point succeeded.

Date: Sat May 07 16:55:58 2022
Total elapsed time: 0.298 seconds.

tnom = 27
temp = 27
method = modified trap
totiter = 16369
traniter = 16355
tranpoints = 4388
accept = 3492
rejected = 896
matrix size = 23
fillins = 6
solver = Normal
Matrix Compiler1: 1.86 KB object code size  1.2/0.9/[0.2]
Matrix Compiler2: 2.07 KB object code size  0.4/0.4/[0.2]

